/*--------------------------------*- C++ -*----------------------------------*\
| =========                 |                                                 |
| \\      /  F ield         | OpenFOAM: The Open Source CFD Toolbox           |
|  \\    /   O peration     | Version:  v1912                                 |
|   \\  /    A nd           | Website:  www.openfoam.com                      |
|    \\/     M anipulation  |                                                 |
\*---------------------------------------------------------------------------*/
FoamFile
{
    version     2.0;
    format      ascii;
    class       dictionary;
    object      blockMeshDict;
}
// * * * * * * * * * * * * * * * * * * * * * * * * * * * * * * * * * * * * * //

scale   1e-3;

vertices
(
    (0 0 0)
    (40 0 0)
    (40 40 0)
    (0 40 0)
    (0 0 40)
    (40 0 40)
    (40 40 40)
    (0 40 40)
);

blocks
(
    hex (0 1 2 3 4 5 6 7) (100 100 100) simpleGrading (1 1 1)
);

edges
(
);

boundary
(
    Top
    {
        type wall;
        faces
        (
            (4 5 6 7)
        );
    }
    Bottom
    {
        type wall;
        faces
        (
            (0 1 2 3)
        );
    }
    Sides
    {
        type wall;
        faces
        (
            (0 4 7 3)
            (2 6 5 1)
            (0 1 5 4)
            (3 2 6 7)
        );
    }
);

mergePatchPairs
(
);

// ************************************************************************* //
