/*--------------------------------*- C++ -*----------------------------------*\
| =========                 |                                                 |
| \\      /  F ield         | OpenFOAM: The Open Source CFD Toolbox           |
|  \\    /   O peration     | Version:  v1912                                 |
|   \\  /    A nd           | Website:  www.openfoam.com                      |
|    \\/     M anipulation  |                                                 |
\*---------------------------------------------------------------------------*/
FoamFile
{
    version     2.0;
    format      ascii;
    class       dictionary;
    location    "constant";
    object      fvOptions;
}
// * * * * * * * * * * * * * * * * * * * * * * * * * * * * * * * * * * * * * //

porous_zone                                                                      
{                                                                               
    type          explicitPorositySource;
                                                
    explicitPorositySourceCoeffs                                                
    {                                                                           
        selectionMode   cellZone;                                               
        cellZone        porousZone;                                                   
                                                                                
        type            DarcyForchheimer;                                       
                                                                                
        f   (0.63 1e6 1e6);                                                     
        d   (80.25 1e6 1e6);                                                    
                                                                                
        coordinateSystem                                                        
        {                                                                       
            type    cartesian;                                                  
            origin  (0 0 0);                                                    
            coordinateRotation                                                  
            {                                                                   
                type    axesRotation;                                           
                e1  (1 0 0);                                                    
                e2  (0 1 0);                                                    
            }                                                                   
        }                                                                       
    }                                                                           
}   

// ************************************************************************* //
