/*--------------------------------*- C++ -*----------------------------------*\
| =========                 |                                                 |
| \\      /  F ield         | OpenFOAM: The Open Source CFD Toolbox           |
|  \\    /   O peration     | Version:  v1912                                 |
|   \\  /    A nd           | Website:  www.openfoam.com                      |
|    \\/     M anipulation  |                                                 |
\*---------------------------------------------------------------------------*/
FoamFile
{
    version     2.0;
    format      ascii;
    class       polyBoundaryMesh;
    location    "constant/polyMesh";
    object      boundary;
}
// * * * * * * * * * * * * * * * * * * * * * * * * * * * * * * * * * * * * * //

3
(
    Top
    {
        type            wall;
        inGroups        1(wall);
        nFaces          10000;
        startFace       2970000;
    }
    Bottom
    {
        type            wall;
        inGroups        1(wall);
        nFaces          10000;
        startFace       2980000;
    }
    Sides
    {
        type            wall;
        inGroups        1(wall);
        nFaces          40000;
        startFace       2990000;
    }
)

// ************************************************************************* //
